8
C2H4F2.xyz
C                  0.49633545   -0.58868593    0.00000000
H                  1.11186925   -0.53623321    0.87365145
H                  1.11186925   -0.53623321   -0.87365145
C                 -0.49633545    0.58868593    0.00000000
H                 -1.11186925    0.53623321   -0.87365145
H                 -1.11186925    0.53623321    0.87365145
F                  0.18668302    1.75315396    0.00000000
F                 -0.18668302   -1.75315396    0.00000000

